python/psse/1rts96_no_bateries_reduced_gens.raw
0, 100.00, 32, 1, 1, 60
CONVERTED DATA FROM A MATPOWER CASE
MATPOWER CASE NAME: rts96_no_bateries_reduced_gens
      1, 'B0001',    138.00, 2,   1,   1, 1,    1.03913,   -5.13300
      2, 'B0002',    138.00, 2,   1,   1, 1,    1.03999,   -5.25200
      3, 'B0003',    138.00, 1,   1,   1, 1,    1.00417,   -4.18600
      4, 'B0004',    138.00, 1,   1,   1, 1,    1.01146,   -8.51200
      5, 'B0005',    138.00, 1,   1,   1, 1,    1.02906,   -8.64700
      6, 'B0006',    138.00, 1,   1,   1, 1,    1.02807,  -11.44700
      7, 'B0007',    138.00, 2,   1,   1, 1,    0.98483,  -16.95600
      8, 'B0008',    138.00, 1,   1,   1, 1,    0.97633,  -16.28000
      9, 'B0009',    138.00, 1,   1,   1, 1,    1.01804,   -7.53900
     10, 'B0010',    138.00, 1,   1,   1, 1,    1.04352,   -9.39200
     11, 'B0011',    230.00, 1,   1,   1, 1,    1.02516,   -2.65400
     12, 'B0012',    230.00, 1,   1,   1, 1,    1.01781,   -1.75900
     13, 'B0013',    230.00, 3,   1,   1, 1,    1.04628,   -0.07900
     14, 'B0014',    230.00, 2,   1,   1, 1,    1.03759,    0.64800
     15, 'B0015',    230.00, 2,   1,   1, 1,    1.03258,   12.11100
     16, 'B0016',    230.00, 2,   1,   1, 1,    1.03528,   11.01900
     17, 'B0017',    230.00, 1,   1,   1, 1,    1.04636,   15.69200
     18, 'B0018',    230.00, 2,   1,   1, 1,    1.05351,   17.14200
     19, 'B0019',    230.00, 1,   1,   1, 1,    1.02743,    9.12500
     20, 'B0020',    230.00, 1,   1,   1, 1,    1.02950,    9.20300
     21, 'B0021',    230.00, 2,   1,   1, 1,    1.05326,   17.84700
     22, 'B0022',    230.00, 2,   1,   1, 1,    1.05484,   23.45300
     23, 'B0023',    230.00, 2,   1,   1, 1,    1.03345,    9.92000
     24, 'B0024',    230.00, 1,   1,   1, 1,    1.00070,    6.09900
      0  / END OF BUS DATA, BEGIN LOAD DATA
      1, 1, 1,    1,    1,      97.20,      19.80, 0, 0, 0, 0, 1, 1
      2, 1, 1,    1,    1,      87.30,      18.00, 0, 0, 0, 0, 1, 1
      3, 1, 1,    1,    1,     162.00,      33.30, 0, 0, 0, 0, 1, 1
      4, 1, 1,    1,    1,      66.60,      13.50, 0, 0, 0, 0, 1, 1
      5, 1, 1,    1,    1,      63.90,      12.60, 0, 0, 0, 0, 1, 1
      6, 1, 1,    1,    1,     122.40,      25.20, 0, 0, 0, 0, 1, 1
      7, 1, 1,    1,    1,     112.50,      22.50, 0, 0, 0, 0, 1, 1
      8, 1, 1,    1,    1,     153.90,      31.50, 0, 0, 0, 0, 1, 1
      9, 1, 1,    1,    1,     157.50,      32.40, 0, 0, 0, 0, 1, 1
     10, 1, 1,    1,    1,     175.50,      36.00, 0, 0, 0, 0, 1, 1
     13, 1, 1,    1,    1,     238.50,      48.60, 0, 0, 0, 0, 1, 1
     14, 1, 1,    1,    1,     174.60,      35.10, 0, 0, 0, 0, 1, 1
     15, 1, 1,    1,    1,     285.30,      57.60, 0, 0, 0, 0, 1, 1
     16, 1, 1,    1,    1,      90.00,      18.00, 0, 0, 0, 0, 1, 1
     18, 1, 1,    1,    1,     299.70,      61.20, 0, 0, 0, 0, 1, 1
     19, 1, 1,    1,    1,     162.90,      33.30, 0, 0, 0, 0, 1, 1
     20, 1, 1,    1,    1,     115.20,      23.40, 0, 0, 0, 0, 1, 1
      0  / END OF LOAD DATA, BEGIN FIXED SHUNT DATA
      6, 1, 1,       0.00,    -100.00
      0  / END OF FIXED SHUNT DATA, BEGIN GENERATOR DATA
      1, '1',     31.600,     -2.784,     20.000,      0.000,    1.03900,  0,    100.000, 0,  0.66650, 0, 0, 1,   1, 100,     40.000,     31.600,   1, 1, 0, 1, 0, 1, 0, 1, 0, 1
      1, '2',    149.994,     -2.784,     60.000,    -50.000,    1.03900,  0,    100.000, 0,  0.16850, 0, 0, 1,   1, 100,    152.000,     30.400,   1, 1, 0, 1, 0, 1, 0, 1, 0, 1
      2, '1',     31.600,      1.976,     20.000,      0.000,    1.04000,  0,    100.000, 0,  0.66650, 0, 0, 1,   1, 100,     40.000,     31.600,   2, 1, 0, 1, 0, 1, 0, 1, 0, 1
      2, '2',    149.994,      1.976,     60.000,    -50.000,    1.04000,  0,    100.000, 0,  0.16850, 0, 0, 1,   1, 100,    152.000,     30.400,   2, 1, 0, 1, 0, 1, 0, 1, 0, 1
      7, '1',     98.490,     39.186,    180.000,      0.000,    0.98500,  0,    100.000, 0,  0.09040, 0, 0, 1,   1, 100,    300.000,     75.000,   7, 1, 0, 1, 0, 1, 0, 1, 0, 1
     13, '1',    206.972,    177.537,    240.000,      0.000,    1.04600,  0,    100.000, 0,  0.41370, 0, 0, 1,   1, 100,    591.000,    206.850,  13, 1, 0, 1, 0, 1, 0, 1, 0, 1
     13, '2',      0.000,      0.000,    999.000,   -999.000,    1.04600,  0,    100.000, 0,  0.00010, 0, 0, 1,   1, 100,    999.000,    999.000,  13, 1, 0, 1, 0, 1, 0, 1, 0, 1
     14, '1',      0.000,    104.397,    200.000,    -50.000,    1.03800,  0,    100.000, 0,  0.16000, 0, 0, 1,   1, 100,      0.000,      0.000,  14, 1, 0, 1, 0, 1, 0, 1, 0, 1
     15, '1',     15.985,     37.410,     30.000,      0.000,    1.03300,  0,    100.000, 0,  0.45710, 0, 0, 1,   1, 100,     60.000,     12.000,  15, 1, 0, 1, 0, 1, 0, 1, 0, 1
     15, '2',    155.000,      7.482,     80.000,    -50.000,    1.03300,  0,    100.000, 0,  0.16480, 0, 0, 1,   1, 100,    155.000,     54.250,  15, 1, 0, 1, 0, 1, 0, 1, 0, 1
     16, '1',    118.117,     61.646,     80.000,    -50.000,    1.03500,  0,    100.000, 0,  0.16480, 0, 0, 1,   1, 100,    155.000,     54.250,  16, 1, 0, 1, 0, 1, 0, 1, 0, 1
     18, '1',    399.540,     95.300,    200.000,    -50.000,    1.05400,  0,    100.000, 0,  0.08490, 0, 0, 1,   1, 100,    400.000,    100.000,  18, 1, 0, 1, 0, 1, 0, 1, 0, 1
     21, '1',    397.804,     43.316,    200.000,    -50.000,    1.05300,  0,    100.000, 0,  0.08490, 0, 0, 1,   1, 100,    400.000,    100.000,  21, 1, 0, 1, 0, 1, 0, 1, 0, 1
     22, '1',    300.000,    -31.632,     96.000,    -90.000,    1.05500,  0,    100.000, 0,  0.08800, 0, 0, 1,   1, 100,    300.000,      0.000,  22, 1, 0, 1, 0, 1, 0, 1, 0, 1
     23, '1',    291.510,    -10.670,    160.000,   -100.000,    1.03300,  0,    100.000, 0,  0.08240, 0, 0, 1,   1, 100,    310.000,    108.500,  23, 1, 0, 1, 0, 1, 0, 1, 0, 1
     23, '2',    266.161,     -5.335,    150.000,    -25.000,    1.03300,  0,    100.000, 0,  0.07280, 0, 0, 1,   1, 100,    350.000,    140.000,  23, 1, 0, 1, 0, 1, 0, 1, 0, 1
      0  / END OF GENERATOR DATA, BEGIN BRANCH DATA
      1,       2,   '1',     0.003000,     0.014000,     0.461000,    175.00,      0.00,      0.00, 0, 0, 0, 0,   1, 1, 0,     1, 1, 0, 1, 0, 1, 0, 1
      1,       3,   '1',     0.055000,     0.211000,     0.057000,    175.00,      0.00,      0.00, 0, 0, 0, 0,   1, 1, 0,     1, 1, 0, 1, 0, 1, 0, 1
      1,       5,   '1',     0.022000,     0.085000,     0.023000,    175.00,      0.00,      0.00, 0, 0, 0, 0,   1, 1, 0,     1, 1, 0, 1, 0, 1, 0, 1
      2,       4,   '1',     0.033000,     0.127000,     0.034000,    175.00,      0.00,      0.00, 0, 0, 0, 0,   1, 1, 0,     2, 1, 0, 1, 0, 1, 0, 1
      2,       6,   '1',     0.050000,     0.192000,     0.052000,    175.00,      0.00,      0.00, 0, 0, 0, 0,   1, 1, 0,     2, 1, 0, 1, 0, 1, 0, 1
      3,       9,   '1',     0.031000,     0.119000,     0.032000,    175.00,      0.00,      0.00, 0, 0, 0, 0,   1, 1, 0,     3, 1, 0, 1, 0, 1, 0, 1
      4,       9,   '1',     0.027000,     0.104000,     0.028000,    175.00,      0.00,      0.00, 0, 0, 0, 0,   1, 1, 0,     4, 1, 0, 1, 0, 1, 0, 1
      5,      10,   '1',     0.023000,     0.088000,     0.024000,    175.00,      0.00,      0.00, 0, 0, 0, 0,   1, 1, 0,     5, 1, 0, 1, 0, 1, 0, 1
      6,      10,   '1',     0.014000,     0.061000,     2.459000,    175.00,      0.00,      0.00, 0, 0, 0, 0,   1, 1, 0,     6, 1, 0, 1, 0, 1, 0, 1
      7,       8,   '1',     0.016000,     0.061000,     0.017000,    175.00,      0.00,      0.00, 0, 0, 0, 0,   1, 1, 0,     7, 1, 0, 1, 0, 1, 0, 1
      8,       9,   '1',     0.043000,     0.165000,     0.045000,    175.00,      0.00,      0.00, 0, 0, 0, 0,   1, 1, 0,     8, 1, 0, 1, 0, 1, 0, 1
      8,      10,   '1',     0.043000,     0.165000,     0.045000,    175.00,      0.00,      0.00, 0, 0, 0, 0,   1, 1, 0,     8, 1, 0, 1, 0, 1, 0, 1
     11,      13,   '1',     0.006000,     0.048000,     0.100000,    500.00,      0.00,      0.00, 0, 0, 0, 0,   1, 1, 0,    11, 1, 0, 1, 0, 1, 0, 1
     11,      14,   '1',     0.005000,     0.042000,     0.088000,    500.00,      0.00,      0.00, 0, 0, 0, 0,   1, 1, 0,    11, 1, 0, 1, 0, 1, 0, 1
     12,      13,   '1',     0.006000,     0.048000,     0.100000,    500.00,      0.00,      0.00, 0, 0, 0, 0,   1, 1, 0,    12, 1, 0, 1, 0, 1, 0, 1
     12,      23,   '1',     0.012000,     0.097000,     0.203000,    500.00,      0.00,      0.00, 0, 0, 0, 0,   1, 1, 0,    12, 1, 0, 1, 0, 1, 0, 1
     13,      23,   '1',     0.011000,     0.087000,     0.182000,    500.00,      0.00,      0.00, 0, 0, 0, 0,   1, 1, 0,    13, 1, 0, 1, 0, 1, 0, 1
     14,      16,   '1',     0.005000,     0.059000,     0.082000,    500.00,      0.00,      0.00, 0, 0, 0, 0,   1, 1, 0,    14, 1, 0, 1, 0, 1, 0, 1
     15,      16,   '1',     0.002000,     0.017000,     0.036000,    500.00,      0.00,      0.00, 0, 0, 0, 0,   1, 1, 0,    15, 1, 0, 1, 0, 1, 0, 1
     15,      21,   '1',     0.006000,     0.049000,     0.103000,    500.00,      0.00,      0.00, 0, 0, 0, 0,   1, 1, 0,    15, 1, 0, 1, 0, 1, 0, 1
     15,      21,   '2',     0.006000,     0.049000,     0.103000,    500.00,      0.00,      0.00, 0, 0, 0, 0,   1, 1, 0,    15, 1, 0, 1, 0, 1, 0, 1
     15,      24,   '1',     0.007000,     0.052000,     0.109000,    500.00,      0.00,      0.00, 0, 0, 0, 0,   1, 1, 0,    15, 1, 0, 1, 0, 1, 0, 1
     16,      17,   '1',     0.003000,     0.026000,     0.055000,    500.00,      0.00,      0.00, 0, 0, 0, 0,   1, 1, 0,    16, 1, 0, 1, 0, 1, 0, 1
     16,      19,   '1',     0.003000,     0.023000,     0.049000,    500.00,      0.00,      0.00, 0, 0, 0, 0,   1, 1, 0,    16, 1, 0, 1, 0, 1, 0, 1
     17,      18,   '1',     0.002000,     0.014000,     0.030000,    500.00,      0.00,      0.00, 0, 0, 0, 0,   1, 1, 0,    17, 1, 0, 1, 0, 1, 0, 1
     17,      22,   '1',     0.014000,     0.105000,     0.221000,    500.00,      0.00,      0.00, 0, 0, 0, 0,   1, 1, 0,    17, 1, 0, 1, 0, 1, 0, 1
     18,      21,   '1',     0.003000,     0.026000,     0.055000,    500.00,      0.00,      0.00, 0, 0, 0, 0,   1, 1, 0,    18, 1, 0, 1, 0, 1, 0, 1
     18,      21,   '2',     0.003000,     0.026000,     0.055000,    500.00,      0.00,      0.00, 0, 0, 0, 0,   1, 1, 0,    18, 1, 0, 1, 0, 1, 0, 1
     19,      20,   '1',     0.005000,     0.040000,     0.083000,    500.00,      0.00,      0.00, 0, 0, 0, 0,   1, 1, 0,    19, 1, 0, 1, 0, 1, 0, 1
     19,      20,   '2',     0.005000,     0.040000,     0.083000,    500.00,      0.00,      0.00, 0, 0, 0, 0,   1, 1, 0,    19, 1, 0, 1, 0, 1, 0, 1
     20,      23,   '1',     0.003000,     0.022000,     0.046000,    500.00,      0.00,      0.00, 0, 0, 0, 0,   1, 1, 0,    20, 1, 0, 1, 0, 1, 0, 1
     20,      23,   '2',     0.003000,     0.022000,     0.046000,    500.00,      0.00,      0.00, 0, 0, 0, 0,   1, 1, 0,    20, 1, 0, 1, 0, 1, 0, 1
     21,      22,   '1',     0.009000,     0.068000,     0.142000,    500.00,      0.00,      0.00, 0, 0, 0, 0,   1, 1, 0,    21, 1, 0, 1, 0, 1, 0, 1
      0  / END OF BRANCH DATA, BEGIN TRANSFORMER DATA
      3,      24,       0,  '1', 1, 1, 1, 0, 0, 2, '     ', 1,     3, 1, 0, 1, 0, 1, 0, 1
      0.002000,     0.084000,    100.00
      1.015000, 0,     0.000,    400.00,    400.00, 0, 0, 0, 1.1, 0.9, 1.1, 0.9, 33, 0, 0, 0, 0
      1, 0
      9,      11,       0,  '1', 1, 1, 1, 0, 0, 2, '     ', 1,     9, 1, 0, 1, 0, 1, 0, 1
      0.002000,     0.084000,    100.00
      1.030000, 0,     0.000,    400.00,    400.00, 0, 0, 0, 1.1, 0.9, 1.1, 0.9, 33, 0, 0, 0, 0
      1, 0
      9,      12,       0,  '1', 1, 1, 1, 0, 0, 2, '     ', 1,     9, 1, 0, 1, 0, 1, 0, 1
      0.002000,     0.084000,    100.00
      1.030000, 0,     0.000,    400.00,    400.00, 0, 0, 0, 1.1, 0.9, 1.1, 0.9, 33, 0, 0, 0, 0
      1, 0
     10,      11,       0,  '1', 1, 1, 1, 0, 0, 2, '     ', 1,    10, 1, 0, 1, 0, 1, 0, 1
      0.002000,     0.084000,    100.00
      1.015000, 0,     0.000,    400.00,    400.00, 0, 0, 0, 1.1, 0.9, 1.1, 0.9, 33, 0, 0, 0, 0
      1, 0
     10,      12,       0,  '1', 1, 1, 1, 0, 0, 2, '     ', 1,    10, 1, 0, 1, 0, 1, 0, 1
      0.002000,     0.084000,    100.00
      1.015000, 0,     0.000,    400.00,    400.00, 0, 0, 0, 1.1, 0.9, 1.1, 0.9, 33, 0, 0, 0, 0
      1, 0
      0  / END OF TRANSFORMER DATA, BEGIN AREA DATA
      1, 0, 0.0, 10.0, 'Area 1'
Q /END OF INPUT DATA, NOTHIG WILL BE READ BELOW THIS LINE
